! DU_1_CargasBT_391_ITQ_RITQ1305
!New "Load.BT_000690203bf2086a7a44587f53f67941baaf51e8d26d939f1a10c5fd8c256b5a_M1" bus1="BT3673821940220312IT05.1.2.4" phases=1 conn=Delta model=2 kv=0.22 kw=0.00000 pf=0.92 daily="RES-TIPO5_DU" status=variable vmaxpu=1.5 vminpu=0.92
!New "Load.BT_000690203bf2086a7a44587f53f67941baaf51e8d26d939f1a10c5fd8c256b5a_M2" bus1="BT3673821940220312IT05.1.2.4" phases=1 conn=Delta model=3 kv=0.22 kw=0.00000 pf=0.92 daily="RES-TIPO5_DU" status=variable vmaxpu=1.5 vminpu=0.92
!New "Load.BT_0016e5d06147ac333e15d546c21b514e8da4a937c284f71e6d7bea1d87a76113_M1" bus1="BT366816224034481IT05.1.2.4" phases=1 conn=Delta model=2 kv=0.22 kw=0.00000 pf=0.92 daily="COM-TIPO5_DU" status=variable vmaxpu=1.5 vminpu=0.92
!New "Load.BT_0016e5d06147ac333e15d546c21b514e8da4a937c284f71e6d7bea1d87a76113_M2" bus1="BT366816224034481IT05.1.2.4" phases=1 conn=Delta model=3 kv=0.22 kw=0.00000 pf=0.92 daily="COM-TIPO5_DU" status=variable vmaxpu=1.5 vminpu=0.92
New "Load.BT_002c8c3cc26fd8bc786330d69eee8547fa35a06b8c3125912458891804d5a9b8_M1" bus1="BT3673942640168733IT05.1.2.4" phases=1 conn=Delta model=2 kv=0.22 kw=0.45633 pf=0.92 daily="RES-TIPO5_DU" status=variable vmaxpu=1.5 vminpu=0.92
New "Load.BT_002c8c3cc26fd8bc786330d69eee8547fa35a06b8c3125912458891804d5a9b8_M2" bus1="BT3673942640168733IT05.1.2.4" phases=1 conn=Delta model=3 kv=0.22 kw=0.45633 pf=0.92 daily="RES-TIPO5_DU" status=variable vmaxpu=1.5 vminpu=0.92
New "Load.BT_002e836607a6f4ed488a62eb04656965b71677a1708b5a488e33110893f802ac_M1" bus1="BT367390540230731IT05.1.2.4" phases=1 conn=Delta model=2 kv=0.22 kw=0.37386 pf=0.92 daily="RES-TIPO5_DU" status=variable vmaxpu=1.5 vminpu=0.92
New "Load.BT_002e836607a6f4ed488a62eb04656965b71677a1708b5a488e33110893f802ac_M2" bus1="BT367390540230731IT05.1.2.4" phases=1 conn=Delta model=3 kv=0.22 kw=0.37386 pf=0.92 daily="RES-TIPO5_DU" status=variable vmaxpu=1.5 vminpu=0.92
New "Load.BT_00305f0808340f87b671694b308f47ebf48787e86807ef204122a86bf7706db6_M1" bus1="BT3667536440320223IT05.1.2.4" phases=1 conn=Delta model=2 kv=0.22 kw=0.44809 pf=0.92 daily="RES-TIPO5_DU" status=variable vmaxpu=1.5 vminpu=0.92
New "Load.BT_00305f0808340f87b671694b308f47ebf48787e86807ef204122a86bf7706db6_M2" bus1="BT3667536440320223IT05.1.2.4" phases=1 conn=Delta model=3 kv=0.22 kw=0.44809 pf=0.92 daily="RES-TIPO5_DU" status=variable vmaxpu=1.5 vminpu=0.92
New "Load.BT_003e2149a5c1f316eda4d1873caaa476c4683ddafe027b0a54e34cffca7a6679_M1" bus1="BT3673594940205485IT05.1.2.3.4" phases=3 conn=Delta model=2 kv=0.22 kw=0.22229 pf=0.92 daily="COM-TIPO8_DU" status=variable vmaxpu=1.5 vminpu=0.92
New "Load.BT_003e2149a5c1f316eda4d1873caaa476c4683ddafe027b0a54e34cffca7a6679_M2" bus1="BT3673594940205485IT05.1.2.3.4" phases=3 conn=Delta model=3 kv=0.22 kw=0.22229 pf=0.92 daily="COM-TIPO8_DU" status=variable vmaxpu=1.5 vminpu=0.92
!New "Load.BT_00470e99b93f2fd52881fc9501b4df056e5e19a6076ac3adb8c2eebeb0aa6212_M1" bus1="BT3659790840377072IT05.1.2.4" phases=1 conn=Delta model=2 kv=0.22 kw=0.00000 pf=0.92 daily="RES-TIPO5_DU" status=variable vmaxpu=1.5 vminpu=0.92
!New "Load.BT_00470e99b93f2fd52881fc9501b4df056e5e19a6076ac3adb8c2eebeb0aa6212_M2" bus1="BT3659790840377072IT05.1.2.4" phases=1 conn=Delta model=3 kv=0.22 kw=0.00000 pf=0.92 daily="RES-TIPO5_DU" status=variable vmaxpu=1.5 vminpu=0.92
!New "Load.BT_0054466b579b09dbf6a930cff2bc44339031b6295731aee6db9c38347c20c99e_M1" bus1="BT3659460440385467IT05.1.2.4" phases=1 conn=Delta model=2 kv=0.22 kw=0.00000 pf=0.92 daily="COM-TIPO5_DU" status=variable vmaxpu=1.5 vminpu=0.92
!New "Load.BT_0054466b579b09dbf6a930cff2bc44339031b6295731aee6db9c38347c20c99e_M2" bus1="BT3659460440385467IT05.1.2.4" phases=1 conn=Delta model=3 kv=0.22 kw=0.00000 pf=0.92 daily="COM-TIPO5_DU" status=variable vmaxpu=1.5 vminpu=0.92
New "Load.BT_0054af311fbb5e58ba22cce61a56836aacc47133aabc668c528398e5358519fb_M1" bus1="BT3674026340180783IT05.1.2.4" phases=1 conn=Delta model=2 kv=0.22 kw=0.75872 pf=0.92 daily="RES-TIPO5_DU" status=variable vmaxpu=1.5 vminpu=0.92
New "Load.BT_0054af311fbb5e58ba22cce61a56836aacc47133aabc668c528398e5358519fb_M2" bus1="BT3674026340180783IT05.1.2.4" phases=1 conn=Delta model=3 kv=0.22 kw=0.75872 pf=0.92 daily="RES-TIPO5_DU" status=variable vmaxpu=1.5 vminpu=0.92
New "Load.BT_0070232a8bc8ceaf66fcd3bbf760db3f944fb3d8febc85926decd6975d4a4011_M1" bus1="BT366895924034919IT05.1.2.4" phases=1 conn=Delta model=2 kv=0.22 kw=0.07030 pf=0.92 daily="RUR-TIPO4_DU" status=variable vmaxpu=1.5 vminpu=0.92
New "Load.BT_0070232a8bc8ceaf66fcd3bbf760db3f944fb3d8febc85926decd6975d4a4011_M2" bus1="BT366895924034919IT05.1.2.4" phases=1 conn=Delta model=3 kv=0.22 kw=0.07030 pf=0.92 daily="RUR-TIPO4_DU" status=variable vmaxpu=1.5 vminpu=0.92
New "Load.BT_007f98f73eab6109e4b6c0d254a48adb9cbfaffd856feca0bba4681f83a5f57f_M1" bus1="BT3674295540198284IT05.1.2.4" phases=1 conn=Delta model=2 kv=0.22 kw=0.26327 pf=0.92 daily="IND-TIPO7_DU" status=variable vmaxpu=1.5 vminpu=0.92
New "Load.BT_007f98f73eab6109e4b6c0d254a48adb9cbfaffd856feca0bba4681f83a5f57f_M2" bus1="BT3674295540198284IT05.1.2.4" phases=1 conn=Delta model=3 kv=0.22 kw=0.26327 pf=0.92 daily="IND-TIPO7_DU" status=variable vmaxpu=1.5 vminpu=0.92
New "Load.BT_0083ffedbce3cf313fd2bbd0d54b56a92ba6c91904c87d3e0c7f18fb842aca01_M1" bus1="BT36671244030552IT05.1.2.3.4" phases=3 conn=Delta model=2 kv=0.22 kw=0.27490 pf=0.92 daily="RES-TIPO5_DU" status=variable vmaxpu=1.5 vminpu=0.92
New "Load.BT_0083ffedbce3cf313fd2bbd0d54b56a92ba6c91904c87d3e0c7f18fb842aca01_M2" bus1="BT36671244030552IT05.1.2.3.4" phases=3 conn=Delta model=3 kv=0.22 kw=0.27490 pf=0.92 daily="RES-TIPO5_DU" status=variable vmaxpu=1.5 vminpu=0.92
New "Load.BT_00894139d9e3b7950a47882421fd9c341889b5254d69c15abeddff7220956524_M1" bus1="BT367390540230731IT05.1.2.4" phases=1 conn=Delta model=2 kv=0.22 kw=0.37661 pf=0.92 daily="RES-TIPO5_DU" status=variable vmaxpu=1.5 vminpu=0.92
New "Load.BT_00894139d9e3b7950a47882421fd9c341889b5254d69c15abeddff7220956524_M2" bus1="BT367390540230731IT05.1.2.4" phases=1 conn=Delta model=3 kv=0.22 kw=0.37661 pf=0.92 daily="RES-TIPO5_DU" status=variable vmaxpu=1.5 vminpu=0.92
New "Load.BT_00a2a043ce51e00d25860d4b0735ac91759b5eeb57997059cbca1b1b75f9637f_M1" bus1="BT3659460440385467IT05.1.2.4" phases=1 conn=Delta model=2 kv=0.22 kw=0.13745 pf=0.92 daily="RES-TIPO5_DU" status=variable vmaxpu=1.5 vminpu=0.92
New "Load.BT_00a2a043ce51e00d25860d4b0735ac91759b5eeb57997059cbca1b1b75f9637f_M2" bus1="BT3659460440385467IT05.1.2.4" phases=1 conn=Delta model=3 kv=0.22 kw=0.13745 pf=0.92 daily="RES-TIPO5_DU" status=variable vmaxpu=1.5 vminpu=0.92
New "Load.BT_00aa581fb50c5c1f668483beec66a84b28c2426a247c9272bb935b2a5dd0b1a6_M1" bus1="BT3659721140374787IT05.1.2.4" phases=1 conn=Delta model=2 kv=0.22 kw=0.16250 pf=0.92 daily="COM-TIPO5_DU" status=variable vmaxpu=1.5 vminpu=0.92
New "Load.BT_00aa581fb50c5c1f668483beec66a84b28c2426a247c9272bb935b2a5dd0b1a6_M2" bus1="BT3659721140374787IT05.1.2.4" phases=1 conn=Delta model=3 kv=0.22 kw=0.16250 pf=0.92 daily="COM-TIPO5_DU" status=variable vmaxpu=1.5 vminpu=0.92
New "Load.BT_00b197dd6d66684ecc42aec00b220e01525317ed4967358a4122430db2a200f8_M1" bus1="BT36671244030552IT05.1.2.4" phases=1 conn=Delta model=2 kv=0.22 kw=0.13745 pf=0.92 daily="RES-TIPO5_DU" status=variable vmaxpu=1.5 vminpu=0.92
New "Load.BT_00b197dd6d66684ecc42aec00b220e01525317ed4967358a4122430db2a200f8_M2" bus1="BT36671244030552IT05.1.2.4" phases=1 conn=Delta model=3 kv=0.22 kw=0.13745 pf=0.92 daily="RES-TIPO5_DU" status=variable vmaxpu=1.5 vminpu=0.92
New "Load.BT_00beb56e579857d63660bacd97dc7bba2cae571b75c67f15e77a9144207e0104_M1" bus1="BT3672968840261384IT05.1.2.4" phases=1 conn=Delta model=2 kv=0.22 kw=0.15996 pf=0.92 daily="COM-TIPO7_DU" status=variable vmaxpu=1.5 vminpu=0.92
New "Load.BT_00beb56e579857d63660bacd97dc7bba2cae571b75c67f15e77a9144207e0104_M2" bus1="BT3672968840261384IT05.1.2.4" phases=1 conn=Delta model=3 kv=0.22 kw=0.15996 pf=0.92 daily="COM-TIPO7_DU" status=variable vmaxpu=1.5 vminpu=0.92
New "Load.BT_00c3509e000bb1a721c6e0eed05f0e07fb782c927e8334afbd829b28992f1cec_M1" bus1="BT367608540335167IT05.1.2.3.4" phases=3 conn=Delta model=2 kv=0.22 kw=1.21505 pf=0.92 daily="RES-TIPO5_DU" status=variable vmaxpu=1.5 vminpu=0.92
New "Load.BT_00c3509e000bb1a721c6e0eed05f0e07fb782c927e8334afbd829b28992f1cec_M2" bus1="BT367608540335167IT05.1.2.3.4" phases=3 conn=Delta model=3 kv=0.22 kw=1.21505 pf=0.92 daily="RES-TIPO5_DU" status=variable vmaxpu=1.5 vminpu=0.92
New "Load.BT_00e2756f0e2c7eb4b45ffe1f6c10a7e5ccb434b63d6ab8c7991389a973d8729a_M1" bus1="BT3672968840261384IT05.1.2.4" phases=1 conn=Delta model=2 kv=0.22 kw=0.59378 pf=0.92 daily="RES-TIPO5_DU" status=variable vmaxpu=1.5 vminpu=0.92
New "Load.BT_00e2756f0e2c7eb4b45ffe1f6c10a7e5ccb434b63d6ab8c7991389a973d8729a_M2" bus1="BT3672968840261384IT05.1.2.4" phases=1 conn=Delta model=3 kv=0.22 kw=0.59378 pf=0.92 daily="RES-TIPO5_DU" status=variable vmaxpu=1.5 vminpu=0.92
New "Load.BT_0113d970328bc1ac69ef6301de547db77b59e08feb269349c7dea31291ada15d_M1" bus1="BT36697440333915IT05.1.2.4" phases=1 conn=Delta model=2 kv=0.22 kw=0.73398 pf=0.92 daily="RES-TIPO5_DU" status=variable vmaxpu=1.5 vminpu=0.92
New "Load.BT_0113d970328bc1ac69ef6301de547db77b59e08feb269349c7dea31291ada15d_M2" bus1="BT36697440333915IT05.1.2.4" phases=1 conn=Delta model=3 kv=0.22 kw=0.73398 pf=0.92 daily="RES-TIPO5_DU" status=variable vmaxpu=1.5 vminpu=0.92
!New "Load.BT_01720bfc4296b19795f6d6069abc8258bff219213d47b08a1c4fcb8c52a9f370_M1" bus1="BT3650308340372789IT05.1.2.4" phases=1 conn=Delta model=2 kv=0.22 kw=0.00000 pf=0.92 daily="RES-TIPO5_DU" status=variable vmaxpu=1.5 vminpu=0.92
!New "Load.BT_01720bfc4296b19795f6d6069abc8258bff219213d47b08a1c4fcb8c52a9f370_M2" bus1="BT3650308340372789IT05.1.2.4" phases=1 conn=Delta model=3 kv=0.22 kw=0.00000 pf=0.92 daily="RES-TIPO5_DU" status=variable vmaxpu=1.5 vminpu=0.92
New "Load.BT_018b2af3aae66fabfa8effbce354c0c5362b5f324c044dd6413924a6cf4ccbf3_M1" bus1="BT367567214016259IT05.1.2.4" phases=1 conn=Delta model=2 kv=0.22 kw=0.06945 pf=0.92 daily="COM-TIPO5_DU" status=variable vmaxpu=1.5 vminpu=0.92
New "Load.BT_018b2af3aae66fabfa8effbce354c0c5362b5f324c044dd6413924a6cf4ccbf3_M2" bus1="BT367567214016259IT05.1.2.4" phases=1 conn=Delta model=3 kv=0.22 kw=0.06945 pf=0.92 daily="COM-TIPO5_DU" status=variable vmaxpu=1.5 vminpu=0.92
New "Load.BT_01992ec9a6757848325e49bb2b0cdd6c50a3f20dd64539ad7285246a502bb22d_M1" bus1="BT3669338140315946IT05.1.2.4" phases=1 conn=Delta model=2 kv=0.22 kw=0.76424 pf=0.92 daily="COM-TIPO8_DU" status=variable vmaxpu=1.5 vminpu=0.92
New "Load.BT_01992ec9a6757848325e49bb2b0cdd6c50a3f20dd64539ad7285246a502bb22d_M2" bus1="BT3669338140315946IT05.1.2.4" phases=1 conn=Delta model=3 kv=0.22 kw=0.76424 pf=0.92 daily="COM-TIPO8_DU" status=variable vmaxpu=1.5 vminpu=0.92
New "Load.BT_01ad019fdb370b8997b5ba8ccced8df4f4b59a0d449ee236084f07d5fe1f76fd_M1" bus1="BT3673594940205485IT05.1.2.4" phases=1 conn=Delta model=2 kv=0.22 kw=0.53605 pf=0.92 daily="RES-TIPO5_DU" status=variable vmaxpu=1.5 vminpu=0.92
New "Load.BT_01ad019fdb370b8997b5ba8ccced8df4f4b59a0d449ee236084f07d5fe1f76fd_M2" bus1="BT3673594940205485IT05.1.2.4" phases=1 conn=Delta model=3 kv=0.22 kw=0.53605 pf=0.92 daily="RES-TIPO5_DU" status=variable vmaxpu=1.5 vminpu=0.92
New "Load.BT_01c225a7fa3223149b10967ab1e10ba0157a7e7912c985f15c04edca2f6bcf6e_M1" bus1="BT36697440333915IT05.1.2.4" phases=1 conn=Delta model=2 kv=0.22 kw=0.18518 pf=0.92 daily="IND-TIPO10_DU" status=variable vmaxpu=1.5 vminpu=0.92
New "Load.BT_01c225a7fa3223149b10967ab1e10ba0157a7e7912c985f15c04edca2f6bcf6e_M2" bus1="BT36697440333915IT05.1.2.4" phases=1 conn=Delta model=3 kv=0.22 kw=0.18518 pf=0.92 daily="IND-TIPO10_DU" status=variable vmaxpu=1.5 vminpu=0.92
New "Load.BT_01c41269ca6ef7247a1646e494833af01508c4187f255d3987fa10888331e4bb_M1" bus1="BT3673205140237785IT05.1.2.4" phases=1 conn=Delta model=2 kv=0.22 kw=0.19793 pf=0.92 daily="RES-TIPO5_DU" status=variable vmaxpu=1.5 vminpu=0.92
New "Load.BT_01c41269ca6ef7247a1646e494833af01508c4187f255d3987fa10888331e4bb_M2" bus1="BT3673205140237785IT05.1.2.4" phases=1 conn=Delta model=3 kv=0.22 kw=0.19793 pf=0.92 daily="RES-TIPO5_DU" status=variable vmaxpu=1.5 vminpu=0.92
New "Load.BT_01dcdec277d7ac6661aa67d834f608ae3c60dd1c76eff1090ab09c39a21b725c_M1" bus1="BT367771440256799IT05.1.2.3.4" phases=3 conn=Delta model=2 kv=0.22 kw=0.28864 pf=0.92 daily="RES-TIPO5_DU" status=variable vmaxpu=1.5 vminpu=0.92
New "Load.BT_01dcdec277d7ac6661aa67d834f608ae3c60dd1c76eff1090ab09c39a21b725c_M2" bus1="BT367771440256799IT05.1.2.3.4" phases=3 conn=Delta model=3 kv=0.22 kw=0.28864 pf=0.92 daily="RES-TIPO5_DU" status=variable vmaxpu=1.5 vminpu=0.92
New "Load.BT_01dd45f5f24f5300bd537792884bcc4b5829840426ab171dbace4516bfa48892_M1" bus1="BT3674931940244595IT05.1.2.4" phases=1 conn=Delta model=2 kv=0.22 kw=0.38486 pf=0.92 daily="RES-TIPO5_DU" status=variable vmaxpu=1.5 vminpu=0.92
New "Load.BT_01dd45f5f24f5300bd537792884bcc4b5829840426ab171dbace4516bfa48892_M2" bus1="BT3674931940244595IT05.1.2.4" phases=1 conn=Delta model=3 kv=0.22 kw=0.38486 pf=0.92 daily="RES-TIPO5_DU" status=variable vmaxpu=1.5 vminpu=0.92
New "Load.BT_01dff0bea40ea6a3018ee05fd11e2b4aa235f48ead6d407bb5f81eb05f9fe8da_M1" bus1="BT3669021840230821IT05.1.2.4" phases=1 conn=Delta model=2 kv=0.22 kw=0.09583 pf=0.92 daily="COM-TIPO5_DU" status=variable vmaxpu=1.5 vminpu=0.92
New "Load.BT_01dff0bea40ea6a3018ee05fd11e2b4aa235f48ead6d407bb5f81eb05f9fe8da_M2" bus1="BT3669021840230821IT05.1.2.4" phases=1 conn=Delta model=3 kv=0.22 kw=0.09583 pf=0.92 daily="COM-TIPO5_DU" status=variable vmaxpu=1.5 vminpu=0.92
New "Load.BT_02031ed613b3b2a09679c7025bc085d44852483774fcb592b8e2d2ee5c596ab1_M1" bus1="BT367558340174279IT05.1.2.3.4" phases=3 conn=Delta model=2 kv=0.22 kw=0.27490 pf=0.92 daily="RES-TIPO5_DU" status=variable vmaxpu=1.5 vminpu=0.92
New "Load.BT_02031ed613b3b2a09679c7025bc085d44852483774fcb592b8e2d2ee5c596ab1_M2" bus1="BT367558340174279IT05.1.2.3.4" phases=3 conn=Delta model=3 kv=0.22 kw=0.27490 pf=0.92 daily="RES-TIPO5_DU" status=variable vmaxpu=1.5 vminpu=0.92
New "Load.BT_020bc8b595021819d4dc603afa90647f8ba4fb29d71b3af2de4a91f7779fdff0_M1" bus1="BT3666936340340078IT05.1.2.4" phases=1 conn=Delta model=2 kv=0.22 kw=0.41510 pf=0.92 daily="RES-TIPO5_DU" status=variable vmaxpu=1.5 vminpu=0.92
New "Load.BT_020bc8b595021819d4dc603afa90647f8ba4fb29d71b3af2de4a91f7779fdff0_M2" bus1="BT3666936340340078IT05.1.2.4" phases=1 conn=Delta model=3 kv=0.22 kw=0.41510 pf=0.92 daily="RES-TIPO5_DU" status=variable vmaxpu=1.5 vminpu=0.92
New "Load.BT_021b70aded77e511742648a54c31b582356a5256964bdcbec7e92b32ee3d1391_M1" bus1="BT3659174440383771IT05.1.2.4" phases=1 conn=Delta model=2 kv=0.22 kw=0.24445 pf=0.92 daily="COM-TIPO5_DU" status=variable vmaxpu=1.5 vminpu=0.92
New "Load.BT_021b70aded77e511742648a54c31b582356a5256964bdcbec7e92b32ee3d1391_M2" bus1="BT3659174440383771IT05.1.2.4" phases=1 conn=Delta model=3 kv=0.22 kw=0.24445 pf=0.92 daily="COM-TIPO5_DU" status=variable vmaxpu=1.5 vminpu=0.92
!New "Load.BT_021cc534cd4e047289be75f82bfc471ae5f0ce81e1abdef68bf81ee9b14096d3_M1" bus1="BT3663313240344419IT05.1.2.4" phases=1 conn=Delta model=2 kv=0.22 kw=0.00000 pf=0.92 daily="RES-TIPO5_DU" status=variable vmaxpu=1.5 vminpu=0.92
!New "Load.BT_021cc534cd4e047289be75f82bfc471ae5f0ce81e1abdef68bf81ee9b14096d3_M2" bus1="BT3663313240344419IT05.1.2.4" phases=1 conn=Delta model=3 kv=0.22 kw=0.00000 pf=0.92 daily="RES-TIPO5_DU" status=variable vmaxpu=1.5 vminpu=0.92
New "Load.BT_021e683067fa724ae81fcefdc42ae7d3d006f5ee41610b153802c2e2590fbdbf_M1" bus1="BT36697440333915IT05.1.2.4" phases=1 conn=Delta model=2 kv=0.22 kw=0.66938 pf=0.92 daily="RES-TIPO5_DU" status=variable vmaxpu=1.5 vminpu=0.92
New "Load.BT_021e683067fa724ae81fcefdc42ae7d3d006f5ee41610b153802c2e2590fbdbf_M2" bus1="BT36697440333915IT05.1.2.4" phases=1 conn=Delta model=3 kv=0.22 kw=0.66938 pf=0.92 daily="RES-TIPO5_DU" status=variable vmaxpu=1.5 vminpu=0.92
New "Load.BT_022cbc175e1ee9108fe23780eb4615ce97039aabe47b889bcba34d52ff458355_M1" bus1="BT3667429240358685IT05.1.2.4" phases=1 conn=Delta model=2 kv=0.22 kw=0.06945 pf=0.92 daily="COM-TIPO5_DU" status=variable vmaxpu=1.5 vminpu=0.92
New "Load.BT_022cbc175e1ee9108fe23780eb4615ce97039aabe47b889bcba34d52ff458355_M2" bus1="BT3667429240358685IT05.1.2.4" phases=1 conn=Delta model=3 kv=0.22 kw=0.06945 pf=0.92 daily="COM-TIPO5_DU" status=variable vmaxpu=1.5 vminpu=0.92
New "Load.BT_0255289009018f159431371a79819db4661fa8742825f5ceccd5d461b84da35e_M1" bus1="BT3667292740364098IT05.1.2.4" phases=1 conn=Delta model=2 kv=0.22 kw=0.48932 pf=0.92 daily="RES-TIPO5_DU" status=variable vmaxpu=1.5 vminpu=0.92
New "Load.BT_0255289009018f159431371a79819db4661fa8742825f5ceccd5d461b84da35e_M2" bus1="BT3667292740364098IT05.1.2.4" phases=1 conn=Delta model=3 kv=0.22 kw=0.48932 pf=0.92 daily="RES-TIPO5_DU" status=variable vmaxpu=1.5 vminpu=0.92
New "Load.BT_025bad6dc2b2ee9960e2632e5dcf5bf77144c67e4e4b783b7edc860b724b2d7f_M1" bus1="BT3674585340209984IT05.1.2.4" phases=1 conn=Delta model=2 kv=0.22 kw=0.21614 pf=0.92 daily="RES-TIPO5_DU" status=variable vmaxpu=1.5 vminpu=0.92
New "Load.BT_025bad6dc2b2ee9960e2632e5dcf5bf77144c67e4e4b783b7edc860b724b2d7f_M2" bus1="BT3674585340209984IT05.1.2.4" phases=1 conn=Delta model=3 kv=0.22 kw=0.21614 pf=0.92 daily="RES-TIPO5_DU" status=variable vmaxpu=1.5 vminpu=0.92
!New "Load.BT_0271e84f17d2e1ed7cfa79d2567b7b81b75d5fae568f78729da4520d2b32ef43_M1" bus1="BT3674026340180783IT05.1.2.4" phases=1 conn=Delta model=2 kv=0.22 kw=0.00000 pf=0.92 daily="RES-TIPO5_DU" status=variable vmaxpu=1.5 vminpu=0.92
!New "Load.BT_0271e84f17d2e1ed7cfa79d2567b7b81b75d5fae568f78729da4520d2b32ef43_M2" bus1="BT3674026340180783IT05.1.2.4" phases=1 conn=Delta model=3 kv=0.22 kw=0.00000 pf=0.92 daily="RES-TIPO5_DU" status=variable vmaxpu=1.5 vminpu=0.92
New "Load.BT_0273de04bf9591bbfa2bf7ee1936a55d7abf2cf5ae9e6a5578ea3d6da3e8d775_M1" bus1="BT3674026340180783IT05.1.2.4" phases=1 conn=Delta model=2 kv=0.22 kw=0.47558 pf=0.92 daily="RES-TIPO5_DU" status=variable vmaxpu=1.5 vminpu=0.92
New "Load.BT_0273de04bf9591bbfa2bf7ee1936a55d7abf2cf5ae9e6a5578ea3d6da3e8d775_M2" bus1="BT3674026340180783IT05.1.2.4" phases=1 conn=Delta model=3 kv=0.22 kw=0.47558 pf=0.92 daily="RES-TIPO5_DU" status=variable vmaxpu=1.5 vminpu=0.92
!New "Load.BT_0275da5f5c5f8fd8b2379bec4d43f6a688707cdcf5be41e19d6134b9c735dcb0_M1" bus1="BT3674764740154885IT05.1.2.4" phases=1 conn=Delta model=2 kv=0.22 kw=0.00000 pf=0.92 daily="RES-TIPO5_DU" status=variable vmaxpu=1.5 vminpu=0.92
!New "Load.BT_0275da5f5c5f8fd8b2379bec4d43f6a688707cdcf5be41e19d6134b9c735dcb0_M2" bus1="BT3674764740154885IT05.1.2.4" phases=1 conn=Delta model=3 kv=0.22 kw=0.00000 pf=0.92 daily="RES-TIPO5_DU" status=variable vmaxpu=1.5 vminpu=0.92
New "Load.BT_028ff19d154d4132ab2752b3386f0c83dbaa77499ae5edd0bae2d1e163fa9bb8_M1" bus1="BT3669521540237134IT05.1.2.4" phases=1 conn=Delta model=2 kv=0.22 kw=0.42060 pf=0.92 daily="RES-TIPO5_DU" status=variable vmaxpu=1.5 vminpu=0.92
New "Load.BT_028ff19d154d4132ab2752b3386f0c83dbaa77499ae5edd0bae2d1e163fa9bb8_M2" bus1="BT3669521540237134IT05.1.2.4" phases=1 conn=Delta model=3 kv=0.22 kw=0.42060 pf=0.92 daily="RES-TIPO5_DU" status=variable vmaxpu=1.5 vminpu=0.92
New "Load.BT_02a9bf0d8dd6e8af2081a6f327e12ec8c39fc9b2e8951b3d9cbbbf9f58c1eaae_M1" bus1="BT3669559140345489IT05.1.2.4" phases=1 conn=Delta model=2 kv=0.22 kw=0.53124 pf=0.92 daily="RES-TIPO5_DU" status=variable vmaxpu=1.5 vminpu=0.92
New "Load.BT_02a9bf0d8dd6e8af2081a6f327e12ec8c39fc9b2e8951b3d9cbbbf9f58c1eaae_M2" bus1="BT3669559140345489IT05.1.2.4" phases=1 conn=Delta model=3 kv=0.22 kw=0.53124 pf=0.92 daily="RES-TIPO5_DU" status=variable vmaxpu=1.5 vminpu=0.92
!New "Load.BT_02aa7d39850bba9fef4fdd997c9039a7cb034b89a0e66562e7720d8515b6a067_M1" bus1="BT3658993540384323IT05.1.2.4" phases=1 conn=Delta model=2 kv=0.22 kw=0.00000 pf=0.92 daily="RES-TIPO5_DU" status=variable vmaxpu=1.5 vminpu=0.92
!New "Load.BT_02aa7d39850bba9fef4fdd997c9039a7cb034b89a0e66562e7720d8515b6a067_M2" bus1="BT3658993540384323IT05.1.2.4" phases=1 conn=Delta model=3 kv=0.22 kw=0.00000 pf=0.92 daily="RES-TIPO5_DU" status=variable vmaxpu=1.5 vminpu=0.92
New "Load.BT_02b64403b4860198e1ae121b13935d7a933fe8cdaf442238c2cdca604bdd0df3_M1" bus1="BT366763874032569IT05.1.2.4" phases=1 conn=Delta model=2 kv=0.22 kw=0.25119 pf=0.92 daily="RES-TIPO5_DU" status=variable vmaxpu=1.5 vminpu=0.92
New "Load.BT_02b64403b4860198e1ae121b13935d7a933fe8cdaf442238c2cdca604bdd0df3_M2" bus1="BT366763874032569IT05.1.2.4" phases=1 conn=Delta model=3 kv=0.22 kw=0.25119 pf=0.92 daily="RES-TIPO5_DU" status=variable vmaxpu=1.5 vminpu=0.92
!New "Load.BT_02cdd10f8539f80061f3700741066d42dfb004a6ea18b9cd4c04fa1984c27c55_M1" bus1="BT365109640356916IT05.1.2.4" phases=1 conn=Delta model=2 kv=0.22 kw=0.00000 pf=0.92 daily="RES-TIPO5_DU" status=variable vmaxpu=1.5 vminpu=0.92
!New "Load.BT_02cdd10f8539f80061f3700741066d42dfb004a6ea18b9cd4c04fa1984c27c55_M2" bus1="BT365109640356916IT05.1.2.4" phases=1 conn=Delta model=3 kv=0.22 kw=0.00000 pf=0.92 daily="RES-TIPO5_DU" status=variable vmaxpu=1.5 vminpu=0.92
New "Load.BT_02faaf9edd932b873255df5cffbeb2e0bf2c6314b75bcc910cecac730f5f1be3_M1" bus1="BT3658993540384323IT05.1.2.4" phases=1 conn=Delta model=2 kv=0.22 kw=0.49482 pf=0.92 daily="RES-TIPO5_DU" status=variable vmaxpu=1.5 vminpu=0.92
New "Load.BT_02faaf9edd932b873255df5cffbeb2e0bf2c6314b75bcc910cecac730f5f1be3_M2" bus1="BT3658993540384323IT05.1.2.4" phases=1 conn=Delta model=3 kv=0.22 kw=0.49482 pf=0.92 daily="RES-TIPO5_DU" status=variable vmaxpu=1.5 vminpu=0.92
New "Load.BT_0301ba466b21b31cf4d6c310801eb13a9f0de463a4b787e556e6345d16c74b8e_M1" bus1="BT3669559140345489IT05.1.2.4" phases=1 conn=Delta model=2 kv=0.22 kw=0.44671 pf=0.92 daily="RES-TIPO5_DU" status=variable vmaxpu=1.5 vminpu=0.92
New "Load.BT_0301ba466b21b31cf4d6c310801eb13a9f0de463a4b787e556e6345d16c74b8e_M2" bus1="BT3669559140345489IT05.1.2.4" phases=1 conn=Delta model=3 kv=0.22 kw=0.44671 pf=0.92 daily="RES-TIPO5_DU" status=variable vmaxpu=1.5 vminpu=0.92
New "Load.BT_030792cd524a80e636ddcb4f7013c65fef9ad14d14f9e4f08f2110b1340edea2_M1" bus1="BT3663313240344419IT05.1.2.4" phases=1 conn=Delta model=2 kv=0.22 kw=0.13745 pf=0.92 daily="RES-TIPO5_DU" status=variable vmaxpu=1.5 vminpu=0.92
New "Load.BT_030792cd524a80e636ddcb4f7013c65fef9ad14d14f9e4f08f2110b1340edea2_M2" bus1="BT3663313240344419IT05.1.2.4" phases=1 conn=Delta model=3 kv=0.22 kw=0.13745 pf=0.92 daily="RES-TIPO5_DU" status=variable vmaxpu=1.5 vminpu=0.92
New "Load.BT_030b2e5bac73f19e0e1467e3d1ab032d9fe93e783d899b20bff3186116fb1be3_M1" bus1="BT36697440333915IT05.1.2.4" phases=1 conn=Delta model=2 kv=0.22 kw=0.22361 pf=0.92 daily="COM-TIPO5_DU" status=variable vmaxpu=1.5 vminpu=0.92
New "Load.BT_030b2e5bac73f19e0e1467e3d1ab032d9fe93e783d899b20bff3186116fb1be3_M2" bus1="BT36697440333915IT05.1.2.4" phases=1 conn=Delta model=3 kv=0.22 kw=0.22361 pf=0.92 daily="COM-TIPO5_DU" status=variable vmaxpu=1.5 vminpu=0.92
New "Load.BT_0313ed5a078e2e97ac56b7b85a66d752ec7b3f39a8463e94545f86ee4148aab7_M1" bus1="BT3667060140330886IT05.1.2.4" phases=1 conn=Delta model=2 kv=0.22 kw=0.35462 pf=0.92 daily="RES-TIPO5_DU" status=variable vmaxpu=1.5 vminpu=0.92
New "Load.BT_0313ed5a078e2e97ac56b7b85a66d752ec7b3f39a8463e94545f86ee4148aab7_M2" bus1="BT3667060140330886IT05.1.2.4" phases=1 conn=Delta model=3 kv=0.22 kw=0.35462 pf=0.92 daily="RES-TIPO5_DU" status=variable vmaxpu=1.5 vminpu=0.92
New "Load.BT_03212f7002bc724f8a4109839e7be2f12155fdbd62bf62f90421422a39a49fd9_M1" bus1="BT3666267540349982IT05.1.2.4" phases=1 conn=Delta model=2 kv=0.22 kw=0.24741 pf=0.92 daily="RES-TIPO5_DU" status=variable vmaxpu=1.5 vminpu=0.92
New "Load.BT_03212f7002bc724f8a4109839e7be2f12155fdbd62bf62f90421422a39a49fd9_M2" bus1="BT3666267540349982IT05.1.2.4" phases=1 conn=Delta model=3 kv=0.22 kw=0.24741 pf=0.92 daily="RES-TIPO5_DU" status=variable vmaxpu=1.5 vminpu=0.92
New "Load.BT_0348a7dca2b274e8344ce1495c1b95c508ed95d2505a0524ebbf76207d64eeee_M1" bus1="BT3673205140237785IT05.1.2.4" phases=1 conn=Delta model=2 kv=0.22 kw=0.27490 pf=0.92 daily="RES-TIPO5_DU" status=variable vmaxpu=1.5 vminpu=0.92
New "Load.BT_0348a7dca2b274e8344ce1495c1b95c508ed95d2505a0524ebbf76207d64eeee_M2" bus1="BT3673205140237785IT05.1.2.4" phases=1 conn=Delta model=3 kv=0.22 kw=0.27490 pf=0.92 daily="RES-TIPO5_DU" status=variable vmaxpu=1.5 vminpu=0.92
!New "Load.BT_034986ddf66e351b985edb01b27aebae1827e68814b80f81532179e29c3fb447_M1" bus1="BT3674026340180783IT05.1.2.4" phases=1 conn=Delta model=2 kv=0.22 kw=0.00000 pf=0.92 daily="COM-TIPO5_DU" status=variable vmaxpu=1.5 vminpu=0.92
!New "Load.BT_034986ddf66e351b985edb01b27aebae1827e68814b80f81532179e29c3fb447_M2" bus1="BT3674026340180783IT05.1.2.4" phases=1 conn=Delta model=3 kv=0.22 kw=0.00000 pf=0.92 daily="COM-TIPO5_DU" status=variable vmaxpu=1.5 vminpu=0.92
New "Load.BT_034b81dca70e0bfb4a8d39be21e8914daa25176158ae591cb6bd1536a18fac07_M1" bus1="BT367390540230731IT05.1.2.4" phases=1 conn=Delta model=2 kv=0.22 kw=0.86043 pf=0.92 daily="RES-TIPO5_DU" status=variable vmaxpu=1.5 vminpu=0.92
New "Load.BT_034b81dca70e0bfb4a8d39be21e8914daa25176158ae591cb6bd1536a18fac07_M2" bus1="BT367390540230731IT05.1.2.4" phases=1 conn=Delta model=3 kv=0.22 kw=0.86043 pf=0.92 daily="RES-TIPO5_DU" status=variable vmaxpu=1.5 vminpu=0.92
New "Load.BT_0365e27e91cb9c84b577cc6a1f37f51dc8dfe775d6861983f8e47f97aec57e4e_M1" bus1="BT367567214016259IT05.1.2.4" phases=1 conn=Delta model=2 kv=0.22 kw=0.06945 pf=0.92 daily="COM-TIPO5_DU" status=variable vmaxpu=1.5 vminpu=0.92
New "Load.BT_0365e27e91cb9c84b577cc6a1f37f51dc8dfe775d6861983f8e47f97aec57e4e_M2" bus1="BT367567214016259IT05.1.2.4" phases=1 conn=Delta model=3 kv=0.22 kw=0.06945 pf=0.92 daily="COM-TIPO5_DU" status=variable vmaxpu=1.5 vminpu=0.92
New "Load.BT_036c3b936b15c041abf9b7335f1953603730998c5d378f41822a330d03a9faf4_M1" bus1="BT3665749740360184IT05.1.2.4" phases=1 conn=Delta model=2 kv=0.22 kw=0.14722 pf=0.92 daily="COM-TIPO5_DU" status=variable vmaxpu=1.5 vminpu=0.92
New "Load.BT_036c3b936b15c041abf9b7335f1953603730998c5d378f41822a330d03a9faf4_M2" bus1="BT3665749740360184IT05.1.2.4" phases=1 conn=Delta model=3 kv=0.22 kw=0.14722 pf=0.92 daily="COM-TIPO5_DU" status=variable vmaxpu=1.5 vminpu=0.92
!New "Load.BT_037269cdb02a5dc1b23edc6cfeac5fcb489f372e0b6d729e9c44a0245a89be27_M1" bus1="BT3663313240344419IT05.1.2.4" phases=1 conn=Delta model=2 kv=0.22 kw=0.00000 pf=0.92 daily="RES-TIPO5_DU" status=variable vmaxpu=1.5 vminpu=0.92
!New "Load.BT_037269cdb02a5dc1b23edc6cfeac5fcb489f372e0b6d729e9c44a0245a89be27_M2" bus1="BT3663313240344419IT05.1.2.4" phases=1 conn=Delta model=3 kv=0.22 kw=0.00000 pf=0.92 daily="RES-TIPO5_DU" status=variable vmaxpu=1.5 vminpu=0.92
New "Load.BT_039ccf913ce3dad37a075b3ff76c6a220e835fecdb7ec21739d992b5e2564053_M1" bus1="BT3665287340353581IT05.1.2.4" phases=1 conn=Delta model=2 kv=0.22 kw=0.13745 pf=0.92 daily="RES-TIPO5_DU" status=variable vmaxpu=1.5 vminpu=0.92
New "Load.BT_039ccf913ce3dad37a075b3ff76c6a220e835fecdb7ec21739d992b5e2564053_M2" bus1="BT3665287340353581IT05.1.2.4" phases=1 conn=Delta model=3 kv=0.22 kw=0.13745 pf=0.92 daily="RES-TIPO5_DU" status=variable vmaxpu=1.5 vminpu=0.92
New "Load.BT_03a6de0cda7da17f220fd2e36c7e18f8778372ff9100e55e252dd674f32bd6fd_M1" bus1="BT3659721140374787IT05.1.2.4" phases=1 conn=Delta model=2 kv=0.22 kw=0.13745 pf=0.92 daily="RES-TIPO5_DU" status=variable vmaxpu=1.5 vminpu=0.92
New "Load.BT_03a6de0cda7da17f220fd2e36c7e18f8778372ff9100e55e252dd674f32bd6fd_M2" bus1="BT3659721140374787IT05.1.2.4" phases=1 conn=Delta model=3 kv=0.22 kw=0.13745 pf=0.92 daily="RES-TIPO5_DU" status=variable vmaxpu=1.5 vminpu=0.92
New "Load.BT_03ca9e1502cee8b575a90f3e7abcd946dee9a3125e1e3478e257214472996a63_M1" bus1="BT3658993540384323IT05.1.2.4" phases=1 conn=Delta model=2 kv=0.22 kw=0.16667 pf=0.92 daily="COM-TIPO5_DU" status=variable vmaxpu=1.5 vminpu=0.92
New "Load.BT_03ca9e1502cee8b575a90f3e7abcd946dee9a3125e1e3478e257214472996a63_M2" bus1="BT3658993540384323IT05.1.2.4" phases=1 conn=Delta model=3 kv=0.22 kw=0.16667 pf=0.92 daily="COM-TIPO5_DU" status=variable vmaxpu=1.5 vminpu=0.92
New "Load.BT_03d1178369463c2d7badcfa0f42f0dfbff352956fa21056438cd9a45b14d55b7_M1" bus1="BT3658993540384323IT05.1.2.4" phases=1 conn=Delta model=2 kv=0.22 kw=0.13745 pf=0.92 daily="RES-TIPO5_DU" status=variable vmaxpu=1.5 vminpu=0.92
New "Load.BT_03d1178369463c2d7badcfa0f42f0dfbff352956fa21056438cd9a45b14d55b7_M2" bus1="BT3658993540384323IT05.1.2.4" phases=1 conn=Delta model=3 kv=0.22 kw=0.13745 pf=0.92 daily="RES-TIPO5_DU" status=variable vmaxpu=1.5 vminpu=0.92
New "Load.BT_03e69c5cc4dfad189892b4fb96e490a1c6d80d0c99a88aa7ab986f956a6631eb_M1" bus1="BT3673942640168733IT05.1.2.4" phases=1 conn=Delta model=2 kv=0.22 kw=0.13745 pf=0.92 daily="RES-TIPO5_DU" status=variable vmaxpu=1.5 vminpu=0.92
New "Load.BT_03e69c5cc4dfad189892b4fb96e490a1c6d80d0c99a88aa7ab986f956a6631eb_M2" bus1="BT3673942640168733IT05.1.2.4" phases=1 conn=Delta model=3 kv=0.22 kw=0.13745 pf=0.92 daily="RES-TIPO5_DU" status=variable vmaxpu=1.5 vminpu=0.92
New "Load.BT_03f051e339067a9955d9754c1101cce191802c0319112cb2a00ff1d037022998_M1" bus1="BT3663313240344419IT05.1.2.4" phases=1 conn=Delta model=2 kv=0.22 kw=0.42334 pf=0.92 daily="RES-TIPO5_DU" status=variable vmaxpu=1.5 vminpu=0.92
New "Load.BT_03f051e339067a9955d9754c1101cce191802c0319112cb2a00ff1d037022998_M2" bus1="BT3663313240344419IT05.1.2.4" phases=1 conn=Delta model=3 kv=0.22 kw=0.42334 pf=0.92 daily="RES-TIPO5_DU" status=variable vmaxpu=1.5 vminpu=0.92
New "Load.BT_040f96ffe7a24c429b11fce7d0a969204221ae1663743fd95039175c3aaff804_M1" bus1="BT3667429240358685IT05.1.2.4" phases=1 conn=Delta model=2 kv=0.22 kw=0.06945 pf=0.92 daily="COM-TIPO5_DU" status=variable vmaxpu=1.5 vminpu=0.92
New "Load.BT_040f96ffe7a24c429b11fce7d0a969204221ae1663743fd95039175c3aaff804_M2" bus1="BT3667429240358685IT05.1.2.4" phases=1 conn=Delta model=3 kv=0.22 kw=0.06945 pf=0.92 daily="COM-TIPO5_DU" status=variable vmaxpu=1.5 vminpu=0.92