! DU_1_CurvaCarga_391_ITQ_RITQ1305
New "Loadshape.MT-TIPO3_SA" 24 1.0 mult=(0.943381, 0.94078, 0.931446, 0.909434, 0.948364, 0.909732, 0.902583, 0.96704, 0.986894, 1.0, 0.97522, 0.921038, 0.866157, 0.866513, 0.839816, 0.852417, 0.840224, 0.840297, 0.810259, 0.799499, 0.785299, 0.779555, 0.700641, 0.661281)
New "Loadshape.MT-TIPO4_DO" 24 1.0 mult=(0.892123, 0.861312, 0.830883, 0.86749, 0.883559, 0.877717, 0.94948, 0.981919, 0.964256, 1.0, 0.97671, 0.965407, 0.957798, 0.940773, 0.930856, 0.933511, 0.943439, 0.959895, 0.950421, 0.931862, 0.99825, 0.99688, 0.979114, 0.999056)
New "Loadshape.MT-TIPO6_DU" 24 1.0 mult=(0.466399, 0.445902, 0.440428, 0.514162, 0.646863, 0.779213, 0.861271, 0.990783, 1.0, 0.953718, 0.94451, 0.918983, 0.870072, 0.846454, 0.802093, 0.792806, 0.720346, 0.720049, 0.710794, 0.657808, 0.625026, 0.629878, 0.567191, 0.529297)
New "Loadshape.AT-1-TIPO1_DO" 5 1.0 mult=(0.625731, 0.596491, 0.594542, 0.580897, 0.586745, 0.60039, 0.578947, 0.502924, 0.411306, 0.325536, 0.319688, 0.319688, 0.317739, 0.31384, 0.319688, 0.296296, 0.265107, 0.265107, 0.276803, 0.282651, 0.270955, 0.37232, 0.423002, 1.0)
New "Loadshape.AT-2-TIPO2_DU" 24 1.0 mult=(0.807575, 0.843959, 0.833448, 0.831428, 0.845983, 0.865141, 0.888071, 0.902364, 0.919575, 0.921462, 0.935093, 0.948129, 0.962771, 0.963884, 0.964961, 0.988292, 0.989459, 0.993895, 1.0, 0.992123, 0.975238, 0.973462, 0.951489, 0.920028)
New "Loadshape.AT-2-TIPO3_SA" 24 1.0 mult=(0.901635, 0.888431, 0.921502, 0.952514, 0.976499, 0.929255, 0.939915, 0.912174, 0.985827, 1.0, 0.916899, 0.998304, 0.858752, 0.740642, 0.976984, 0.925863, 0.724409, 0.66069, 0.774682, 0.938946, 0.895942, 0.883949, 0.930345, 0.883707)
New "Loadshape.AT-2-TIPO4_DO" 24 1.0 mult=(0.937636, 0.864483, 0.79652, 0.814452, 0.895715, 0.906334, 0.913547, 0.911569, 0.933071, 0.928272, 0.919534, 0.953646, 0.940634, 0.919315, 0.918437, 0.910658, 0.92774, 0.928021, 0.943535, 0.938314, 0.931743, 0.940529, 1.0, 0.973394)
New "Loadshape.AT-2-TIPO6_DU" 24 1.0 mult=(0.949019, 0.943377, 0.960966, 0.955248, 0.952397, 0.961188, 0.974276, 0.968321, 0.973252, 0.988327, 0.954716, 0.963402, 0.976907, 0.982695, 0.994002, 0.9911, 0.984998, 1.0, 0.983507, 0.994995, 0.991743, 0.978497, 0.97985, 0.988935)
New "Loadshape.AT-2-TIPO7_SA" 24 1.0 mult=(0.853134, 0.808386, 0.976322, 1.0, 0.377177, 0.630854, 0.770731, 0.531762, 0.613539, 0.374883, 0.346198, 0.604882, 0.630228, 0.610201, 0.603526, 0.508397, 0.782414, 0.657244, 0.937624, 0.846459, 0.677897, 0.884531, 0.530719, 0.974653)
New "Loadshape.AT-2-TIPO8_DO" 24 1.0 mult=(0.780516, 0.714497, 0.756845, 0.723943, 0.810763, 0.704373, 0.719447, 0.678584, 0.791235, 0.80217, 0.836832, 0.940905, 0.848506, 1.0, 0.985024, 0.990984, 0.935577, 0.875358, 0.866029, 0.829549, 0.82173, 0.754263, 0.640632, 0.737204)
New "Loadshape.AT-2-TIPO10_DU" 24 1.0 mult=(0.863188, 0.782801, 0.867607, 0.89208, 0.799116, 0.834976, 0.907036, 0.759687, 0.846873, 0.882733, 0.92964, 0.793168, 0.912984, 1.0, 0.886302, 0.880184, 0.956152, 0.886132, 0.970088, 0.93032, 0.867777, 0.802855, 0.816111, 0.883413)
New "Loadshape.MT-TIPO1_SA" 24 1.0 mult=(1.0, 0.988517, 0.996546, 0.972809, 0.919589, 0.920181, 0.921825, 0.884093, 0.893692, 0.870694, 0.879379, 0.876826, 0.835249, 0.816771, 0.838089, 0.841949, 0.830803, 0.829297, 0.81712, 0.858295, 0.851882, 0.832854, 0.735471, 0.680509)
New "Loadshape.MT-TIPO2_DO" 24 1.0 mult=(0.858314, 0.792264, 0.800318, 0.77851, 0.773424, 0.810116, 0.752598, 0.790816, 0.798208, 0.828052, 0.871234, 0.868068, 0.867733, 0.889393, 0.906285, 0.871428, 0.885457, 0.859921, 0.848179, 0.856374, 0.831306, 0.845646, 0.891251, 1.0)
New "Loadshape.RUR-TIPO4_DU" 24 1.0 mult=(0.348016, 0.270448, 0.291025, 0.30709, 0.378124, 0.313854, 0.310544, 0.390497, 0.597005, 0.616644, 0.76682, 0.841899, 0.856848, 0.719394, 1.0, 0.883485, 0.907855, 0.959501, 0.784059, 0.641875, 0.563034, 0.481147, 0.395708, 0.364526)
New "Loadshape.RUR-TIPO5_SA" 24 1.0 mult=(0.298093, 0.285822, 0.230409, 0.26511, 0.283249, 0.361498, 0.364293, 0.383931, 0.461833, 0.47834, 0.582122, 0.624417, 0.555714, 0.69949, 0.747294, 0.682998, 0.743532, 0.802982, 1.0, 0.964949, 0.725858, 0.510914, 0.465365, 0.426528)
New "Loadshape.RUR-TIPO6_DO" 24 1.0 mult=(0.428673, 0.37263, 0.409975, 0.513267, 0.596489, 0.700288, 0.68276, 0.69094, 0.663774, 0.645052, 0.572983, 0.433282, 0.418263, 0.419064, 0.605762, 1.0, 0.855418, 0.608123, 0.541042, 0.523807, 0.492361, 0.427798, 0.324014, 0.314036)
New "Loadshape.RUR-TIPO8_DU" 24 1.0 mult=(0.532669, 0.520533, 0.468935, 0.443444, 0.514675, 0.513994, 0.482292, 0.591681, 0.659515, 0.618604, 0.640419, 0.639137, 0.682444, 0.739409, 0.782425, 0.883046, 0.773441, 0.707071, 0.87694, 0.928692, 1.0, 0.892661, 0.79182, 0.724515)
New "Loadshape.RUR-TIPO9_SA" 24 1.0 mult=(0.192622, 0.190791, 0.164856, 0.162317, 0.262478, 0.296279, 0.364772, 0.293093, 0.325412, 0.245619, 0.391929, 0.413198, 0.442269, 0.389602, 0.452876, 0.576843, 0.632347, 0.806833, 1.0, 0.966638, 0.591419, 0.378463, 0.3516, 0.27289)
New "Loadshape.RUR-TIPO10_DO" 24 1.0 mult=(0.574092, 0.240831, 0.226393, 0.223869, 0.289137, 0.161052, 0.162285, 0.26126, 0.443635, 0.487157, 0.581793, 0.351644, 0.466661, 0.560792, 0.546122, 0.733715, 0.557332, 0.481274, 0.947916, 1.0, 0.753212, 0.750823, 0.4195, 0.451596)
New "Loadshape.COM-TIPO2_DU" 24 1.0 mult=(0.189307, 0.204248, 0.202364, 0.204236, 0.238599, 0.32032, 0.520494, 0.70434, 0.912349, 0.982125, 1.0, 0.990184, 0.769126, 0.870052, 0.946647, 0.832877, 0.797065, 0.672096, 0.591145, 0.509226, 0.406893, 0.318089, 0.250821, 0.207271)
New "Loadshape.COM-TIPO3_SA" 24 1.0 mult=(0.329653, 0.276191, 0.248586, 0.241443, 0.237917, 0.250351, 0.299971, 0.362995, 0.544524, 0.634861, 0.753905, 0.826228, 0.981441, 0.951973, 1.0, 0.860193, 0.781438, 0.677352, 0.562181, 0.567767, 0.536861, 0.438927, 0.332861, 0.25436)
New "Loadshape.MT-TIPO7_DU" 24 1.0 mult=(0.314729, 0.336201, 0.315442, 0.333914, 0.351429, 0.382814, 0.508794, 0.822628, 0.967592, 0.968278, 1.0, 0.915235, 0.7385, 0.853746, 0.983899, 0.98539, 0.822995, 0.434414, 0.443601, 0.445119, 0.454279, 0.437985, 0.381033, 0.357396)
New "Loadshape.MT-TIPO8_SA" 24 1.0 mult=(1.0, 0.988985, 0.935477, 0.932594, 0.944965, 0.943539, 0.884885, 0.835534, 0.936552, 0.937466, 0.924475, 0.894533, 0.867057, 0.86452, 0.850755, 0.744304, 0.723907, 0.709051, 0.638657, 0.64607, 0.654739, 0.594967, 0.594765, 0.611642)
New "Loadshape.MT-TIPO9_DO" 24 1.0 mult=(0.52872, 0.48723, 0.467793, 0.456003, 0.464651, 0.459788, 0.487126, 0.545821, 0.602486, 0.682954, 0.759426, 0.819838, 0.849056, 0.922503, 0.963417, 0.975606, 0.989082, 1.0, 0.998466, 0.95524, 0.807125, 0.674548, 0.569013, 0.523732)
New "Loadshape.RES-TIPO1_DU" 24 1.0 mult=(0.398214, 0.35799, 0.294476, 0.285982, 0.254272, 0.258445, 0.401744, 0.258889, 0.305204, 0.29333, 0.364412, 0.340057, 0.444159, 0.447374, 0.44996, 0.4391, 0.49621, 0.491356, 1.0, 0.975472, 0.984123, 0.753792, 0.646147, 0.597658)
New "Loadshape.RES-TIPO2_SA" 24 1.0 mult=(0.491999, 0.594847, 0.585263, 0.608064, 0.576244, 0.57551, 0.600556, 0.724015, 0.75526, 0.697338, 0.692565, 0.964258, 0.892, 0.994301, 0.769444, 0.791022, 0.84955, 0.923032, 1.0, 0.879489, 0.921974, 0.708841, 0.801965, 0.600091)
New "Loadshape.RES-TIPO3_DO" 24 1.0 mult=(0.456724, 0.386207, 0.183289, 0.175706, 0.203314, 0.171501, 0.311531, 0.268074, 0.347409, 0.383226, 0.566011, 1.0, 0.867824, 0.656277, 0.454953, 0.462954, 0.54478, 0.548111, 0.822355, 0.940734, 0.749075, 0.526872, 0.556842, 0.339731)
New "Loadshape.RES-TIPO5_DU" 24 1.0 mult=(0.240443, 0.191859, 0.096349, 0.096516, 0.099892, 0.107367, 0.170089, 0.114379, 0.12865, 0.136012, 0.178641, 0.411236, 0.215891, 0.239368, 0.288882, 0.21824, 0.195333, 0.255502, 0.811992, 1.0, 0.632596, 0.490738, 0.477287, 0.381304)
New "Loadshape.RES-TIPO6_SA" 24 1.0 mult=(0.435862, 0.312216, 0.244531, 0.200249, 0.198855, 0.1801, 0.187411, 0.287835, 0.533671, 0.610961, 0.431611, 0.547754, 0.832097, 0.454954, 0.586197, 0.560594, 0.880194, 0.955407, 0.806095, 1.0, 0.728835, 0.594973, 0.77955, 0.359886)
New "Loadshape.RES-TIPO7_DO" 24 1.0 mult=(0.343188, 0.43172, 0.219652, 0.152616, 0.137382, 0.247618, 0.174272, 0.219476, 0.218352, 0.332173, 0.545677, 0.716725, 0.482175, 0.855303, 0.582561, 0.628232, 0.457741, 0.742414, 0.950778, 0.495868, 0.7103, 0.862414, 1.0, 0.503373)
New "Loadshape.RES-TIPO9_DU" 24 1.0 mult=(0.196444, 0.126721, 0.120486, 0.161136, 0.143109, 0.118235, 0.138053, 0.220785, 0.20805, 0.163668, 0.081008, 0.147237, 0.113432, 0.126116, 0.136385, 0.085251, 0.122682, 0.229125, 0.214615, 1.0, 0.558582, 0.31102, 0.291438, 0.198937)
New "Loadshape.RES-TIPO10_SA" 24 1.0 mult=(0.32643, 0.528983, 0.20623, 0.148482, 0.203429, 0.133882, 0.128866, 0.302927, 0.233667, 0.284585, 0.400645, 0.212156, 0.381835, 0.342498, 0.300882, 0.580442, 1.0, 0.751689, 0.296861, 0.644833, 0.579843, 0.263777, 0.475525, 0.468094)
New "Loadshape.RUR-TIPO1_DO" 24 1.0 mult=(0.458902, 0.447911, 0.39355, 0.350108, 0.335654, 0.364895, 0.356088, 0.353055, 0.422075, 0.543389, 0.58323, 0.481819, 0.553964, 0.42262, 0.447932, 0.485389, 0.515845, 0.611808, 1.0, 0.91866, 0.753396, 0.666081, 0.488597, 0.409163)
New "Loadshape.RUR-TIPO3_DU" 24 1.0 mult=(0.021472, 0.026705, 0.019022, 0.01797, 0.027927, 0.084387, 0.314867, 0.585053, 0.517412, 0.600969, 0.63247, 0.549468, 0.505033, 0.763533, 0.958801, 1.0, 0.669599, 0.310917, 0.208424, 0.213966, 0.100258, 0.043397, 0.041291, 0.028815)
New "Loadshape.IND-TIPO6_DU" 24 1.0 mult=(0.009216, 0.009014, 0.009216, 0.015955, 0.461398, 0.381383, 0.787507, 1.0, 0.996058, 0.9939, 0.944689, 0.982438, 0.956585, 0.964884, 0.947095, 0.919039, 0.943646, 0.937803, 0.935674, 0.928112, 0.928179, 0.984187, 0.777133, 0.152912)
New "Loadshape.IND-TIPO7_SA" 24 1.0 mult=(0.249412, 0.211223, 0.205057, 0.20304, 0.209654, 0.195814, 0.201955, 0.333958, 0.418787, 0.604241, 0.793776, 1.0, 0.918589, 0.68802, 0.671675, 0.881298, 0.534447, 0.500116, 0.234212, 0.274157, 0.483816, 0.460269, 0.465885, 0.355789)
New "Loadshape.IND-TIPO8_DO" 24 1.0 mult=(0.454986, 0.462605, 0.472933, 0.455102, 0.445076, 0.435479, 0.499638, 0.470123, 0.400064, 0.459626, 0.459857, 0.442082, 0.499136, 0.39818, 0.438122, 0.383605, 0.421362, 0.485069, 0.67363, 1.0, 0.941494, 0.867649, 0.850422, 0.538867)
New "Loadshape.SP-TIPO7_DO" 24 1.0 mult=(0.74467, 0.82389, 0.830742, 0.586075, 0.882965, 0.534049, 0.566194, 0.8435, 0.71348, 0.827076, 1.0, 0.917649, 0.891058, 0.87771, 0.859011, 0.854003, 0.748787, 0.846355, 0.726181, 0.914911, 0.794202, 0.708686, 0.737277, 0.671279)
New "Loadshape.SP-TIPO9_DU" 24 1.0 mult=(0.682884, 0.273088, 0.592223, 0.21343, 0.528527, 0.45213, 0.435326, 0.777778, 0.788785, 0.89423, 0.824866, 0.999284, 0.798554, 1.0, 0.779471, 0.994073, 0.815423, 0.985932, 0.976228, 0.773675, 0.993031, 0.729256, 0.735378, 0.325778)
New "Loadshape.IND-TIPO9_DU" 24 1.0 mult=(0.751633, 0.743184, 0.825515, 0.781702, 0.874742, 0.808649, 0.793062, 0.833154, 0.947408, 1.0, 0.905355, 0.83266, 0.880861, 0.781807, 0.64829, 0.63852, 0.531674, 0.556741, 0.841177, 0.866, 0.88642, 0.904935, 0.776472, 0.726888)
New "Loadshape.IND-TIPO10_SA" 24 1.0 mult=(0.394993, 0.456749, 0.393561, 0.408587, 0.413833, 0.400669, 0.404101, 0.46125, 1.0, 0.855704, 0.483924, 0.361905, 0.271117, 0.236368, 0.228307, 0.227449, 0.227677, 0.235802, 0.399113, 0.320867, 0.367439, 0.300034, 0.237296, 0.246051)
New "Loadshape.SP-TIPO1_DO" 24 1.0 mult=(0.992587, 0.956572, 0.935375, 0.922825, 0.921904, 0.890163, 0.867436, 0.882848, 0.909665, 0.973547, 1.0, 0.983227, 0.963092, 0.950504, 0.969063, 0.986157, 0.973358, 0.956761, 0.910227, 0.938456, 0.949087, 0.950889, 0.945776, 0.963721)
New "Loadshape.SP-TIPO3_DU" 24 1.0 mult=(0.501978, 0.451208, 0.408691, 0.386676, 0.469126, 0.518701, 0.566332, 0.640858, 0.785824, 0.819093, 0.986695, 1.0, 0.968472, 0.974131, 0.932859, 0.825536, 0.894564, 0.871112, 0.977172, 0.939841, 0.896821, 0.863078, 0.664694, 0.585317)
New "Loadshape.SP-TIPO4_SA" 24 1.0 mult=(0.415733, 0.389406, 0.537715, 0.522481, 0.327724, 0.400248, 0.49757, 0.560234, 0.768218, 0.954315, 0.984628, 0.996959, 1.0, 0.968262, 0.952886, 0.915899, 0.904606, 0.836852, 0.752065, 0.735786, 0.631465, 0.429887, 0.529023, 0.489854)
New "Loadshape.SP-TIPO5_DO" 24 1.0 mult=(0.75414, 0.704198, 0.670824, 0.593419, 0.59564, 0.585554, 0.617928, 0.573174, 0.62296, 0.652842, 0.774787, 0.777041, 0.892628, 0.973745, 0.877709, 0.851815, 0.877705, 0.908224, 0.977467, 1.0, 0.906134, 0.921914, 0.856861, 0.806153)
New "Loadshape.COM-TIPO4_DO" 24 1.0 mult=(0.545918, 0.543202, 0.560633, 0.555621, 0.568758, 0.50523, 0.521979, 0.53326, 0.582209, 0.81537, 0.71625, 0.722612, 0.601896, 0.656584, 0.515717, 0.574022, 0.467068, 0.52226, 0.706994, 0.922416, 1.0, 0.915746, 0.670135, 0.623949)
New "Loadshape.COM-TIPO6_DU" 24 1.0 mult=(0.348526, 0.356553, 0.352357, 0.352357, 0.369009, 0.410679, 0.532477, 0.775542, 0.902711, 0.976606, 0.89899, 0.911464, 1.0, 0.947383, 0.758119, 0.674055, 0.631108, 0.517728, 0.466594, 0.419891, 0.398357, 0.387191, 0.389032, 0.36713)
New "Loadshape.COM-TIPO7_SA" 24 1.0 mult=(0.650182, 0.518801, 0.37988, 0.356501, 0.339474, 0.343944, 0.412642, 0.47798, 0.637962, 0.654883, 0.629756, 0.691932, 0.917765, 0.792175, 0.810989, 0.861506, 0.984366, 0.998274, 1.0, 0.773627, 0.648646, 0.656963, 0.578817, 0.62097)
New "Loadshape.COM-TIPO8_DO" 24 1.0 mult=(0.713291, 0.649738, 0.646396, 0.661065, 0.641313, 0.606596, 0.635172, 0.699021, 0.609018, 0.679668, 0.792881, 0.908168, 0.904298, 0.66244, 0.736676, 0.701782, 0.654047, 0.676306, 0.707697, 0.919894, 1.0, 0.964699, 0.721279, 0.656149)
New "Loadshape.COM-TIPO10_DU" 24 1.0 mult=(0.014893, 0.016912, 0.013453, 0.013313, 0.014023, 0.013598, 0.031364, 0.166783, 0.890371, 0.619865, 1.0, 0.701132, 0.363725, 0.858835, 0.845266, 0.623438, 0.998229, 0.752592, 0.218677, 0.170489, 0.15936, 0.160805, 0.052991, 0.014698)
New "Loadshape.IND-TIPO1_SA" 24 1.0 mult=(0.23831, 0.238964, 0.251545, 0.265076, 0.329634, 0.433036, 0.512482, 0.84093, 0.964241, 1.0, 0.998858, 0.900083, 0.852595, 0.873908, 0.63333, 0.506433, 0.358269, 0.24878, 0.167813, 0.148022, 0.154519, 0.134615, 0.138056, 0.120468)
New "Loadshape.IND-TIPO2_DO" 24 1.0 mult=(0.543708, 0.638519, 0.618925, 0.656949, 0.598979, 0.604747, 0.669746, 0.640467, 0.660404, 0.731387, 0.629668, 0.649328, 0.737438, 0.733267, 0.671786, 0.700442, 0.671529, 0.720272, 0.808089, 0.792056, 0.71894, 1.0, 0.566037, 0.776908)
New "Loadshape.IND-TIPO4_DU" 24 1.0 mult=(0.026922, 0.028251, 0.03001, 0.026634, 0.026968, 0.037653, 0.063456, 0.301278, 0.850873, 0.927186, 1.0, 0.994073, 0.495451, 0.862958, 0.984236, 0.906653, 0.884072, 0.622494, 0.155256, 0.089674, 0.070667, 0.0421, 0.051103, 0.035562)
New "Loadshape.Inj_AT-2-TIPO6_DO" 24 1.0 mult=(0.984841, 0.950902, 0.946246, 0.954529, 0.968018, 0.956953, 0.940339, 0.924257, 0.935372, 0.935598, 0.929639, 0.944008, 0.963589, 0.969673, 0.968745, 0.98066, 0.984715, 0.989442, 1.0, 0.988139, 0.981487, 0.961642, 0.930993, 0.926151)
New "Loadshape.Inj_AT-2-TIPO8_DU" 24 1.0 mult=(0.739389, 0.700217, 0.747239, 0.709795, 0.776936, 0.833719, 0.829359, 0.897524, 0.881021, 0.94429, 0.96972, 0.969061, 0.92735, 0.901241, 0.879816, 0.959899, 0.950581, 0.900345, 0.991942, 0.973512, 0.968833, 1.0, 0.991834, 0.846361)
New "Loadshape.Inj_AT-2-TIPO9_SA" 24 1.0 mult=(0.589765, 0.522, 0.485427, 0.475141, 0.479826, 0.502429, 0.534983, 0.575299, 0.625394, 0.658599, 0.686534, 0.702628, 0.697237, 0.690843, 0.683218, 0.692887, 0.731066, 0.825369, 1.0, 0.936987, 0.857114, 0.79067, 0.723273, 0.648695)
New "Loadshape.Inj_AT-2-TIPO10_DO" 24 1.0 mult=(0.74535, 0.680073, 0.64236, 0.622631, 0.624408, 0.608471, 0.592623, 0.596904, 0.716468, 0.782557, 0.843425, 0.876343, 0.887246, 0.859886, 0.827582, 0.830677, 0.813642, 0.905076, 1.0, 0.989792, 0.943881, 0.925165, 0.857214, 0.76726)
New "Loadshape.AT-2_MT-TIPO1_DU" 24 1.0 mult=(0.647928, 0.562868, 0.511325, 0.498801, 0.513451, 0.555813, 0.662863, 0.751954, 0.861854, 0.923703, 0.963314, 1.0, 0.978803, 0.934491, 0.968277, 0.973746, 0.973482, 0.932261, 0.960271, 0.980659, 0.947792, 0.938607, 0.858892, 0.76516)
New "Loadshape.AT-2_MT-TIPO2_SA" 24 1.0 mult=(0.647276, 0.564655, 0.508632, 0.481828, 0.480001, 0.482411, 0.510179, 0.517671, 0.577823, 0.632895, 0.69293, 0.7064, 0.716309, 0.710256, 0.689614, 0.684564, 0.703424, 0.754558, 0.929879, 1.0, 0.909121, 0.838426, 0.757327, 0.688022)
New "Loadshape.AT-2_MT-TIPO3_DO" 24 1.0 mult=(0.93277, 0.865474, 0.813866, 0.808364, 0.794202, 0.789038, 0.781447, 0.773223, 0.78717, 0.835518, 0.863287, 0.906735, 0.919207, 0.91768, 0.901757, 0.888648, 0.880524, 0.887563, 0.973865, 1.0, 0.976635, 0.965748, 0.952028, 0.907273)
New "Loadshape.SP-TIPO10_DO" 24 1.0 mult=(0.985426, 0.582223, 0.852294, 0.66566, 0.663822, 0.849603, 0.443576, 0.41955, 0.144095, 0.418631, 0.894637, 0.997374, 0.999015, 1.0, 0.999606, 0.99895, 0.76052, 0.416924, 0.417186, 0.901792, 0.699534, 0.999147, 0.726121, 0.390862)
New "Loadshape.DA_AT-2-TIPO1_DU" 24 1.0 mult=(0.546989, 0.432691, 0.389103, 0.374245, 0.397563, 0.472293, 0.54629, 0.528269, 0.557492, 0.579499, 0.629094, 0.704652, 0.691832, 0.62391, 0.61901, 0.633653, 0.674373, 0.823191, 0.970453, 1.0, 0.993249, 0.924333, 0.827029, 0.681073)
New "Loadshape.DA_AT-2-TIPO2_SA" 24 1.0 mult=(0.540662, 0.431924, 0.369875, 0.348703, 0.354387, 0.370444, 0.402344, 0.45973, 0.538141, 0.60265, 0.643893, 0.68051, 0.702331, 0.694774, 0.690105, 0.696794, 0.72034, 0.830021, 1.0, 0.922151, 0.84639, 0.777616, 0.708371, 0.614215)
New "Loadshape.DA_AT-2-TIPO3_DO" 24 1.0 mult=(0.58925, 0.484787, 0.414807, 0.377282, 0.369168, 0.380325, 0.401623, 0.429006, 0.505071, 0.663286, 0.74645, 0.773834, 0.819473, 0.794118, 0.752536, 0.74645, 0.782961, 0.877282, 1.0, 0.962475, 0.93712, 0.921907, 0.815416, 0.6714)
New "Loadshape.DA_AT-2-TIPO5_DU" 24 1.0 mult=(0.387534, 0.348795, 0.336741, 0.338738, 0.363885, 0.428622, 0.499094, 0.546455, 0.572042, 0.56453, 0.60372, 0.599687, 0.554789, 0.580652, 0.607378, 0.652244, 0.698224, 0.760124, 1.0, 0.913112, 0.789159, 0.671128, 0.572018, 0.485542)
New "Loadshape.DA_MT-TIPO1_SA" 24 1.0 mult=(0.520218, 0.478729, 0.441575, 0.440652, 0.445693, 0.464639, 0.46103, 0.480458, 0.538777, 0.557981, 0.585398, 0.580433, 0.564952, 0.570863, 0.580509, 0.609651, 0.666401, 0.83015, 1.0, 0.893153, 0.828497, 0.745793, 0.684568, 0.602011)
New "Loadshape.DA_MT-TIPO2_DO" 24 1.0 mult=(0.698252, 0.665133, 0.634775, 0.632935, 0.641214, 0.660534, 0.686293, 0.724931, 0.785649, 0.795768, 0.821527, 0.824287, 0.786569, 0.792088, 0.791168, 0.787489, 0.816927, 0.885005, 1.0, 0.963201, 0.914443, 0.848206, 0.797608, 0.74425)
New "Loadshape.DA_MT-TIPO4_DU" 24 1.0 mult=(0.526128, 0.142518, 0.775534, 0.788005, 0.783254, 0.778504, 0.383017, 0.125297, 0.190024, 0.771971, 0.929335, 0.848575, 0.735154, 0.57304, 0.941211, 0.858076, 0.422803, 0.059976, 0.054038, 0.069477, 0.316508, 0.965558, 0.973872, 1.0)
New "Loadshape.DA_MT-TIPO5_SA" 24 1.0 mult=(0.314149, 0.199041, 0.115108, 0.114309, 0.115108, 0.113509, 0.101519, 0.361311, 0.940847, 1.0, 0.864908, 0.785771, 0.726619, 0.979217, 0.996803, 0.852918, 0.613909, 0.678657, 0.713829, 0.653078, 0.611511, 0.679456, 0.690648, 0.638689)
New "Loadshape.Inj_AT-2-TIPO1_DO" 24 1.0 mult=(0.762353, 0.713462, 0.679786, 0.663251, 0.660034, 0.66017, 0.655557, 0.657941, 0.728597, 0.784726, 0.828862, 0.856986, 0.862764, 0.847352, 0.834102, 0.832327, 0.837246, 0.881505, 1.0, 0.97162, 0.945605, 0.928572, 0.881857, 0.81926)
New "Loadshape.Inj_AT-2-TIPO3_DU" 24 1.0 mult=(0.595826, 0.519458, 0.471796, 0.465331, 0.472144, 0.528894, 0.619864, 0.664048, 0.716694, 0.78093, 0.803001, 0.846902, 0.788077, 0.800224, 0.80204, 0.803077, 0.824044, 0.837738, 0.991423, 1.0, 0.965478, 0.925318, 0.854213, 0.729887)
New "Loadshape.Inj_AT-2-TIPO4_SA" 24 1.0 mult=(0.722519, 0.634803, 0.592989, 0.590947, 0.605084, 0.606118, 0.635954, 0.689345, 0.785317, 0.835773, 0.871011, 0.881282, 0.876727, 0.87195, 0.856124, 0.84813, 0.849469, 0.889994, 1.0, 0.951248, 0.89504, 0.834286, 0.764739, 0.692704)
New "Loadshape.Inj_AT-2-TIPO5_DO" 24 1.0 mult=(0.804478, 0.738624, 0.696488, 0.662184, 0.657018, 0.667813, 0.664822, 0.645285, 0.635515, 0.663568, 0.714436, 0.767899, 0.808576, 0.804279, 0.790502, 0.78308, 0.817599, 0.873158, 1.0, 0.979701, 0.952103, 0.898008, 0.806129, 0.737686)
New "Loadshape.MT_BT-TIPO5_SA" 24 1.0 mult=(0.309338, 0.264111, 0.243874, 0.223498, 0.216402, 0.234407, 0.261188, 0.347596, 0.340581, 0.383988, 0.483204, 0.602824, 0.580282, 0.47638, 0.437987, 0.544228, 0.59865, 0.703171, 1.0, 0.695057, 0.529304, 0.571834, 0.509223, 0.485235)
New "Loadshape.MT_BT-TIPO6_DO" 24 1.0 mult=(0.543203, 0.357457, 0.430002, 0.390543, 0.435073, 0.630468, 0.804161, 0.822999, 0.832192, 0.884908, 0.874035, 0.911577, 0.923231, 0.933298, 0.837642, 0.891961, 0.901219, 1.0, 0.906259, 0.777912, 0.60967, 0.54602, 0.569745, 0.445819)
New "Loadshape.MT_BT-TIPO8_DU" 24 1.0 mult=(0.598039, 0.504074, 0.495061, 0.46845, 0.452908, 0.527682, 0.528582, 0.320057, 0.315328, 0.303962, 0.358165, 0.426785, 0.420319, 0.417394, 0.353392, 0.414668, 0.406399, 0.568863, 1.0, 0.993105, 0.93254, 0.800617, 0.720894, 0.723855)
New "Loadshape.MT_BT-TIPO9_SA" 24 1.0 mult=(0.584, 0.440167, 0.408952, 0.377438, 0.401971, 0.419931, 0.40857, 0.355064, 0.351037, 0.330159, 0.354586, 0.43794, 0.414154, 0.537677, 0.441329, 0.43169, 0.503518, 0.61828, 1.0, 0.74327, 0.748413, 0.636595, 0.66443, 0.562542)
New "Loadshape.MT_BT-TIPO10_DO" 24 1.0 mult=(0.562938, 0.457442, 0.477836, 0.407915, 0.398881, 0.379341, 0.326793, 0.420907, 0.485216, 0.542867, 0.648394, 0.6841, 0.717792, 0.489822, 0.447555, 0.543834, 0.699299, 0.910348, 0.936729, 0.961827, 1.0, 0.733877, 0.627211, 0.595435)
New "Loadshape.AT-2_MT-TIPO4_DO" 24 1.0 mult=(0.725222, 0.633097, 0.593323, 0.539446, 0.519355, 0.519403, 0.533339, 0.523277, 0.582282, 0.655982, 0.717262, 0.784374, 0.832203, 0.841379, 0.819787, 0.802822, 0.816911, 0.867094, 0.990863, 1.0, 0.953249, 0.935514, 0.882022, 0.783218)
New "Loadshape.AT-2_MT-TIPO5_DU" 24 1.0 mult=(0.742327, 0.675024, 0.626585, 0.599298, 0.591057, 0.58697, 0.639227, 0.65972, 0.700496, 0.731158, 0.769679, 0.818315, 0.824493, 0.789249, 0.804351, 0.806039, 0.817072, 0.834441, 0.946305, 1.0, 0.961875, 0.943315, 0.901079, 0.835074)
New "Loadshape.AT-2_MT-TIPO5_SA" 24 1.0 mult=(0.770435, 0.704039, 0.655575, 0.632246, 0.612162, 0.613897, 0.624868, 0.620303, 0.667204, 0.712712, 0.737649, 0.773638, 0.760721, 0.771945, 0.760423, 0.759672, 0.771326, 0.81333, 0.958672, 1.0, 0.917905, 0.848995, 0.784934, 0.733992)
New "Loadshape.AT-2_MT-TIPO5_DO" 24 1.0 mult=(0.799104, 0.781193, 0.725919, 0.692496, 0.670129, 0.656325, 0.661075, 0.615935, 0.662391, 0.781087, 0.827731, 0.882206, 0.903544, 0.874774, 0.857848, 0.862254, 0.88041, 0.868961, 0.983802, 1.0, 0.94447, 0.9157, 0.885949, 0.821127)
New "Loadshape.AT-2_MT-TIPO6_DU" 24 1.0 mult=(0.658364, 0.551921, 0.498503, 0.486651, 0.492722, 0.521954, 0.60513, 0.650103, 0.690455, 0.725736, 0.761706, 0.802291, 0.814497, 0.770859, 0.778609, 0.78212, 0.797793, 0.825261, 0.941652, 1.0, 0.982207, 0.957493, 0.888236, 0.798348)
New "Loadshape.AT-2_MT-TIPO6_SA" 24 1.0 mult=(0.618994, 0.534894, 0.472613, 0.451732, 0.447144, 0.454498, 0.46545, 0.586065, 0.734172, 0.83283, 0.889106, 0.919115, 0.92915, 0.919442, 0.905293, 0.820526, 0.793435, 0.83092, 0.952617, 1.0, 0.92587, 0.867878, 0.783972, 0.656283)
New "Loadshape.AT-2_MT-TIPO6_DO" 24 1.0 mult=(0.718365, 0.628965, 0.565786, 0.529887, 0.515813, 0.516352, 0.525413, 0.509255, 0.569241, 0.640523, 0.698469, 0.749335, 0.788796, 0.779456, 0.749288, 0.733743, 0.760929, 0.819602, 0.970478, 1.0, 0.968305, 0.936835, 0.888142, 0.795706)
New "Loadshape.AT-2_MT-TIPO7_DU" 24 1.0 mult=(0.596333, 0.504639, 0.456022, 0.436603, 0.434766, 0.462034, 0.553675, 0.60721, 0.659173, 0.721733, 0.775633, 0.825859, 0.839728, 0.806522, 0.810684, 0.812778, 0.822512, 0.85556, 0.966561, 1.0, 0.954222, 0.908295, 0.832483, 0.719603)
New "Loadshape.AT-2_MT-TIPO7_SA" 24 1.0 mult=(0.609974, 0.528175, 0.472243, 0.446474, 0.441805, 0.448646, 0.480004, 0.501887, 0.572332, 0.636888, 0.664596, 0.702479, 0.715664, 0.71438, 0.703796, 0.728354, 0.737702, 0.77884, 0.927843, 1.0, 0.930138, 0.865315, 0.790816, 0.71615)
New "Loadshape.AT-2_MT-TIPO7_DO" 24 1.0 mult=(0.700649, 0.606731, 0.578415, 0.557965, 0.549982, 0.553429, 0.574079, 0.560094, 0.584828, 0.600935, 0.667926, 0.695205, 0.739417, 0.787838, 0.764394, 0.745145, 0.768574, 0.826661, 0.988748, 1.0, 0.96105, 0.914376, 0.862155, 0.772624)
New "Loadshape.AT-2_MT-TIPO8_DU" 24 1.0 mult=(0.566816, 0.468208, 0.408452, 0.385137, 0.383512, 0.4154, 0.501221, 0.515116, 0.535275, 0.567723, 0.611788, 0.673857, 0.694093, 0.641865, 0.652723, 0.655081, 0.680302, 0.721905, 0.901986, 1.0, 0.966876, 0.926115, 0.830488, 0.720547)
New "Loadshape.AT-2_MT-TIPO8_SA" 24 1.0 mult=(0.601117, 0.503482, 0.43811, 0.406898, 0.396377, 0.405387, 0.429754, 0.446887, 0.526844, 0.603341, 0.64751, 0.664786, 0.668261, 0.658764, 0.652043, 0.656463, 0.679922, 0.746514, 0.936394, 1.0, 0.89353, 0.816321, 0.739723, 0.673769)
New "Loadshape.AT-2_MT-TIPO8_DO" 24 1.0 mult=(0.620043, 0.52461, 0.458042, 0.422197, 0.404911, 0.407183, 0.418976, 0.41149, 0.470991, 0.549043, 0.640209, 0.695482, 0.731497, 0.731035, 0.6948, 0.687537, 0.724219, 0.810626, 1.0, 0.979822, 0.909415, 0.862973, 0.799858, 0.687099)
New "Loadshape.AT-2_MT-TIPO9_DU" 24 1.0 mult=(0.715641, 0.649658, 0.615096, 0.61592, 0.63212, 0.657412, 0.729335, 0.767582, 0.837203, 0.872893, 0.885371, 0.913252, 0.900984, 0.885685, 0.904698, 0.918425, 0.933115, 0.924474, 0.975733, 1.0, 0.948081, 0.941339, 0.878985, 0.820826)
New "Loadshape.AT-2_MT-TIPO9_SA" 24 1.0 mult=(0.817865, 0.741578, 0.689916, 0.674586, 0.675141, 0.684529, 0.708164, 0.726459, 0.77579, 0.805712, 0.834502, 0.841088, 0.837003, 0.833089, 0.838334, 0.860995, 0.878303, 0.903195, 0.988946, 1.0, 0.941738, 0.902631, 0.813862, 0.723863)
New "Loadshape.AT-2_MT-TIPO9_DO" 24 1.0 mult=(0.770903, 0.709801, 0.672764, 0.627562, 0.618553, 0.625455, 0.646607, 0.643036, 0.683446, 0.734657, 0.774908, 0.808851, 0.885128, 0.901762, 0.891476, 0.874021, 0.869789, 0.869415, 0.995314, 1.0, 0.954221, 0.918175, 0.882432, 0.835704)
New "Loadshape.AT-2_MT-TIPO10_DU" 24 1.0 mult=(0.647394, 0.506208, 0.441881, 0.415564, 0.409425, 0.446935, 0.545332, 0.5889, 0.623863, 0.648891, 0.691647, 0.745008, 0.779951, 0.693646, 0.69994, 0.698934, 0.715338, 0.749087, 0.86937, 1.0, 0.979906, 0.969858, 0.892315, 0.794228)
New "Loadshape.AT-2_MT-TIPO10_SA" 24 1.0 mult=(0.657237, 0.546321, 0.450855, 0.437158, 0.431815, 0.440081, 0.47415, 0.507874, 0.580048, 0.644686, 0.698408, 0.736637, 0.753935, 0.744936, 0.731866, 0.725989, 0.736904, 0.790414, 0.943297, 1.0, 0.925595, 0.878215, 0.797868, 0.745368)
New "Loadshape.AT-2_MT-TIPO10_DO" 24 1.0 mult=(0.734195, 0.625815, 0.535966, 0.463295, 0.444005, 0.45963, 0.468346, 0.467382, 0.52941, 0.616313, 0.70059, 0.779134, 0.834473, 0.832684, 0.791765, 0.755724, 0.777282, 0.858672, 0.978431, 1.0, 0.972549, 0.939223, 0.891905, 0.775291)
New "Loadshape.MT_BT-TIPO1_DU" 24 1.0 mult=(0.459228, 0.339275, 0.268, 0.252802, 0.285562, 0.301929, 0.415877, 0.381119, 0.423429, 0.407819, 0.40813, 0.509986, 0.570176, 0.436933, 0.473719, 0.453191, 0.523614, 0.647579, 0.895938, 1.0, 0.889659, 0.870651, 0.715502, 0.613169)
New "Loadshape.MT_BT-TIPO1_SA" 24 1.0 mult=(0.476241, 0.380193, 0.351717, 0.291958, 0.288184, 0.279396, 0.328045, 0.371269, 0.431491, 0.453123, 0.535174, 0.613908, 0.51311, 0.536657, 0.625602, 0.595209, 0.704178, 0.757795, 1.0, 0.972888, 0.866356, 0.85177, 0.703867, 0.631511)
New "Loadshape.MT_BT-TIPO1_DO" 24 1.0 mult=(0.570618, 0.447911, 0.342812, 0.29534, 0.281226, 0.27492, 0.288448, 0.338266, 0.418013, 0.504281, 0.582595, 0.61896, 0.64072, 0.627158, 0.549645, 0.608922, 0.675326, 0.836602, 1.0, 0.89958, 0.815206, 0.782081, 0.727375, 0.604033)
New "Loadshape.MT_BT-TIPO2_DU" 24 1.0 mult=(0.593135, 0.501981, 0.493466, 0.468828, 0.459897, 0.511583, 0.524291, 0.682894, 0.651946, 0.653462, 0.773115, 0.793016, 0.817175, 0.802723, 0.836603, 0.801414, 0.764817, 0.75326, 0.931749, 1.0, 0.934366, 0.858724, 0.776887, 0.686225)
New "Loadshape.MT_BT-TIPO2_SA" 24 1.0 mult=(0.676905, 0.652443, 0.554333, 0.494758, 0.486434, 0.479882, 0.500784, 0.513927, 0.631966, 0.700445, 0.712973, 0.765862, 0.761797, 0.718471, 0.689822, 0.707971, 0.71383, 0.75113, 1.0, 0.959936, 0.895749, 0.945245, 0.764254, 0.752731)
New "Loadshape.MT_BT-TIPO2_DO" 24 1.0 mult=(0.6081, 0.550401, 0.526556, 0.468399, 0.479786, 0.466512, 0.453982, 0.463066, 0.570502, 0.801863, 0.729431, 1.0, 0.686354, 0.675548, 0.625347, 0.659018, 0.642475, 0.728194, 0.848282, 0.836062, 0.877327, 0.84317, 0.837639, 0.632631)
New "Loadshape.MT_BT-TIPO3_DU" 24 1.0 mult=(0.384914, 0.355225, 0.31959, 0.278669, 0.29367, 0.337543, 0.34823, 0.301481, 0.328566, 0.309486, 0.3438, 0.493996, 0.460032, 0.411223, 0.425252, 0.454164, 0.46761, 0.579373, 1.0, 0.941398, 0.867602, 0.738352, 0.646951, 0.552986)
New "Loadshape.DA_MT-TIPO1_DO" 24 1.0 mult=(0.544777, 0.510769, 0.46259, 0.449075, 0.452971, 0.47747, 0.454712, 0.47152, 0.527338, 0.576996, 0.604925, 0.598923, 0.597627, 0.584456, 0.582419, 0.617776, 0.692394, 0.848078, 1.0, 0.869272, 0.816808, 0.76832, 0.661447, 0.567859)
New "Loadshape.DA_MT-TIPO2_DU" 24 1.0 mult=(0.681456, 0.634098, 0.613659, 0.598704, 0.621137, 0.659023, 0.733799, 0.818544, 0.924227, 0.975075, 0.972582, 0.9332, 0.908275, 0.949651, 1.0, 0.972084, 0.908774, 0.87986, 0.886341, 0.85344, 0.832502, 0.795115, 0.739282, 0.717348)
New "Loadshape.DA_MT-TIPO2_SA" 24 1.0 mult=(1.0, 0.926724, 0.864943, 0.850575, 0.818247, 0.713362, 0.654454, 0.744253, 0.801006, 0.826149, 0.831178, 0.793103, 0.752155, 0.778017, 0.760057, 0.784483, 0.779454, 0.849856, 0.898707, 0.827586, 0.781609, 0.714799, 0.614224, 0.567529)
New "Loadshape.DA_MT-TIPO3_DU" 24 1.0 mult=(0.392033, 0.362126, 0.358342, 0.368138, 0.383597, 0.444579, 0.473077, 0.488372, 0.502844, 0.50914, 0.599416, 0.613673, 0.564012, 0.558632, 0.588505, 0.62652, 0.64239, 0.738999, 1.0, 0.941, 0.793807, 0.667189, 0.567468, 0.464308)